@<TRIPOS>MOLECULE
Pose3.pdb
132 131 1 0 0
SMALL
NO_CHARGES


@<TRIPOS>ATOM
      1 N          44.7880   -4.2980   20.3550 N.4       1 LIG    0.0000
      2 P          40.4780   -3.7660   20.9000 P.3       1 LIG    0.0000
      3 C1         40.6980   -3.8980   18.2510 C.3       1 LIG    0.0000
      4 C2         40.4990   -2.4880   17.4910 C.3       1 LIG    0.0000
      5 C3         41.7050   -1.5400   17.6970 C.3       1 LIG    0.0000
      6 C11        42.6030   -5.2070   21.4240 C.3       1 LIG    0.0000
      7 O11        41.2760   -3.8920   19.5560 O.3       1 LIG    0.0000
      8 C12        43.9940   -4.6810   21.6200 C.3       1 LIG    0.0000
      9 O12        41.6050   -4.3040   21.8730 O.3       1 LIG    0.0000
     10 C13        44.5570   -2.8350   20.0000 C.3       1 LIG    0.0000
     11 O13        39.2880   -4.6620   20.9990 O.co2     1 LIG    0.0000
     12 C14        46.3180   -4.4220   20.5690 C.3       1 LIG    0.0000
     13 O14        40.1280   -2.3680   21.1080 O.co2     1 LIG    0.0000
     14 C15        44.3870   -5.0600   19.0710 C.3       1 LIG    0.0000
     15 C21        39.1250   -3.1250   15.7420 C.2       1 LIG    0.0000
     16 C21        38.4930   -7.7460   13.2350 C.2       1 LIG    0.0000
     17 C21        38.7740   -7.8990   11.7620 C.3       1 LIG    0.0000
     18 C21        39.0630   -9.3230   11.3020 C.2       1 LIG    0.0000
     19 C21        39.9690   -9.5930   10.3110 C.2       1 LIG    0.0000
     20 C21        40.7440   -8.5070    9.5660 C.3       1 LIG    0.0000
     21 C21        41.5080   -8.9850    8.3740 C.3       1 LIG    0.0000
     22 C21        40.9820   -8.6170    6.9840 C.3       1 LIG    0.0000
     23 C21        42.1360   -8.0120    6.1450 C.3       1 LIG    0.0000
     24 C21        43.3360   -7.5930    7.0290 C.3       1 LIG    0.0000
     25 O21        40.3680   -2.8130   16.1150 O.3       1 LIG    0.0000
     26 C22        39.1610   -4.4170   14.9230 C.3       1 LIG    0.0000
     27 O22        38.0830   -2.5190   16.0020 O.2       1 LIG    0.0000
     28 C23        39.9980   -4.1570   13.6040 C.3       1 LIG    0.0000
     29 C24        39.3140   -4.2050   12.2890 C.3       1 LIG    0.0000
     30 C25        37.8890   -3.7250   12.4550 C.3       1 LIG    0.0000
     31 C26        36.8250   -4.7440   11.9320 C.3       1 LIG    0.0000
     32 C27        36.0030   -5.3150   13.0750 C.3       1 LIG    0.0000
     33 C28        36.0060   -6.7730   13.0480 C.3       1 LIG    0.0000
     34 C29        37.2650   -7.2730   13.7350 C.2       1 LIG    0.0000
     35 C31        42.3300    0.4810   18.6980 C.2       1 LIG    0.0000
     36 C31        39.8500    7.2470   26.5600 C.3       1 LIG    0.0000
     37 C31        39.8210    8.3520   25.4900 C.3       1 LIG    0.0000
     38 C31        41.1810    8.9910   25.1040 C.3       1 LIG    0.0000
     39 C31        41.5840    8.9740   23.6240 C.3       1 LIG    0.0000
     40 C31        42.5900    7.8740   23.4190 C.3       1 LIG    0.0000
     41 C31        43.3320    7.5230   24.7320 C.3       1 LIG    0.0000
     42 C31        44.5880    6.7010   24.4870 C.3       1 LIG    0.0000
     43 O31        41.3780   -0.4380   18.5990 O.3       1 LIG    0.0000
     44 C32        41.6890    1.7230   19.0670 C.3       1 LIG    0.0000
     45 O32        43.4980    0.3210   18.5390 O.2       1 LIG    0.0000
     46 C33        42.0030    2.2030   20.5010 C.3       1 LIG    0.0000
     47 C34        41.1080    1.6150   21.5780 C.3       1 LIG    0.0000
     48 C35        40.2320    2.6500   22.3160 C.3       1 LIG    0.0000
     49 C36        41.0050    3.7290   23.0330 C.3       1 LIG    0.0000
     50 C37        40.4590    4.0800   24.4710 C.3       1 LIG    0.0000
     51 C38        39.8580    5.5460   24.5450 C.3       1 LIG    0.0000
     52 C39        39.3770    5.8340   25.9780 C.3       1 LIG    0.0000
     53 HC1        39.7140   -4.3589   18.3370 H         1 LIG    0.0000
     54 HC2        41.3121   -4.5366   17.6160 H         1 LIG    0.0000
     55 HC         39.5874   -2.0055   17.8435 H         1 LIG    0.0000
     56 HC3        42.5331   -2.1088   18.1200 H         1 LIG    0.0000
     57 HC4        42.0078   -1.1333   16.7321 H         1 LIG    0.0000
     58 HC5        42.4488   -5.3960   20.3616 H         1 LIG    0.0000
     59 HC6        42.5005   -6.1458   21.9683 H         1 LIG    0.0000
     60 HC7        44.5635   -5.4482   22.1446 H         1 LIG    0.0000
     61 HC8        43.9366   -3.8026   22.2629 H         1 LIG    0.0000
     62 HC9        39.2685   -8.0111   13.9383 H         1 LIG    0.0000
     63 HC10       37.9043   -7.5373   11.2134 H         1 LIG    0.0000
     64 HC11       39.6289   -7.2730   11.5063 H         1 LIG    0.0000
     65 HC12       38.5385  -10.1424   11.7708 H         1 LIG    0.0000
     66 HC13       40.1443  -10.6244   10.0428 H         1 LIG    0.0000
     67 HC14       40.0323   -7.7522    9.2315 H         1 LIG    0.0000
     68 HC15       41.4423   -8.0409   10.2611 H         1 LIG    0.0000
     69 HC16       42.5178   -8.5827    8.4545 H         1 LIG    0.0000
     70 HC17       41.5740  -10.0715    8.4311 H         1 LIG    0.0000
     71 HC18       40.6023   -9.5112    6.4897 H         1 LIG    0.0000
     72 HC19       40.1795   -7.8856    7.0802 H         1 LIG    0.0000
     73 HC20       41.7644   -7.1340    5.6167 H         1 LIG    0.0000
     74 HC21       42.4713   -8.7502    5.4165 H         1 LIG    0.0000
     75 HC22       39.6319   -5.2082   15.5064 H         1 LIG    0.0000
     76 HC23       38.1452   -4.7117   14.6596 H         1 LIG    0.0000
     77 HC24       40.4380   -3.1642   13.6973 H         1 LIG    0.0000
     78 HC25       40.8132   -4.8802   13.5805 H         1 LIG    0.0000
     79 HC26       39.8363   -3.5602   11.5822 H         1 LIG    0.0000
     80 HC27       39.3126   -5.2292   11.9159 H         1 LIG    0.0000
     81 HC28       37.7056   -3.5477   13.5147 H         1 LIG    0.0000
     82 HC29       37.7699   -2.7851   11.9159 H         1 LIG    0.0000
     83 HC30       36.1591   -4.2360   11.2344 H         1 LIG    0.0000
     84 HC31       37.3326   -5.5579   11.4144 H         1 LIG    0.0000
     85 HC32       36.4254   -4.9759   14.0209 H         1 LIG    0.0000
     86 HC33       34.9768   -4.9572   12.9920 H         1 LIG    0.0000
     87 HC34       35.1282   -7.1507   13.5723 H         1 LIG    0.0000
     88 HC35       35.9916   -7.1193   12.0146 H         1 LIG    0.0000
     89 HC36       37.2070   -7.2639   14.8134 H         1 LIG    0.0000
     90 HC37       40.8682    7.1490   26.9365 H         1 LIG    0.0000
     91 HC38       39.1929    7.5308   27.3820 H         1 LIG    0.0000
     92 HC39       39.3903    7.9229   24.5853 H         1 LIG    0.0000
     93 HC40       39.1594    9.1452   25.8383 H         1 LIG    0.0000
     94 HC41       41.9571    8.4634   25.6584 H         1 LIG    0.0000
     95 HC42       41.1733   10.0281   25.4393 H         1 LIG    0.0000
     96 HC43       40.7057    8.7896   23.0054 H         1 LIG    0.0000
     97 HC44       42.0281    9.9321   23.3539 H         1 LIG    0.0000
     98 HC45       42.0725    6.9853   23.0577 H         1 LIG    0.0000
     99 HC46       43.3178    8.1911   22.6721 H         1 LIG    0.0000
    100 HC47       43.6124    8.4492   25.2337 H         1 LIG    0.0000
    101 HC48       42.6600    6.9590   25.3789 H         1 LIG    0.0000
    102 HC49       42.0157    2.4950   18.3703 H         1 LIG    0.0000
    103 HC50       40.6103    1.6002   18.9695 H         1 LIG    0.0000
    104 HC51       43.0335    1.9326   20.7313 H         1 LIG    0.0000
    105 HC52       41.9142    3.2890   20.5307 H         1 LIG    0.0000
    106 HC53       41.7411    1.1185   22.3134 H         1 LIG    0.0000
    107 HC54       40.4563    0.8705   21.1207 H         1 LIG    0.0000
    108 HC55       39.5807    3.1277   21.5841 H         1 LIG    0.0000
    109 HC56       39.6120    2.1253   23.0429 H         1 LIG    0.0000
    110 HC57       42.0386    3.3977   23.1330 H         1 LIG    0.0000
    111 HC58       40.9869    4.6328   22.4240 H         1 LIG    0.0000
    112 HC59       39.6771    3.3671   24.7327 H         1 LIG    0.0000
    113 HC60       41.2732    3.9936   25.1905 H         1 LIG    0.0000
    114 HC61       40.6267    6.2676   24.2684 H         1 LIG    0.0000
    115 HC62       39.0173    5.6290   23.8562 H         1 LIG    0.0000
    116 HC63       39.7612    5.0502   26.6308 H         1 LIG    0.0000
    117 HC64       38.2877    5.7977   25.9938 H         1 LIG    0.0000
    118 HC65       44.8150   -2.2083   20.8537 H         1 LIG    0.0000
    119 HC66       45.1823   -2.5648   19.1491 H         1 LIG    0.0000
    120 HC67       43.5085   -2.6847   19.7427 H         1 LIG    0.0000
    121 HC68       46.5668   -5.4508   20.8292 H         1 LIG    0.0000
    122 HC69       46.8367   -4.1439   19.6515 H         1 LIG    0.0000
    123 HC70       46.6269   -3.7582   21.3765 H         1 LIG    0.0000
    124 HC71       44.5192   -6.1306   19.2270 H         1 LIG    0.0000
    125 HC72       43.3426   -4.8534   18.8374 H         1 LIG    0.0000
    126 HC73       45.0160   -4.7331   18.2430 H         1 LIG    0.0000
    127 HC74       44.0201   -6.9767    6.4456 H         1 LIG    0.0000
    128 HC75       43.8580   -8.4838    7.3785 H         1 LIG    0.0000
    129 HC76       42.9750   -7.0239    7.8857 H         1 LIG    0.0000
    130 HC77       45.0708    6.4817   25.4393 H         1 LIG    0.0000
    131 HC78       45.2732    7.2648   23.8539 H         1 LIG    0.0000
    132 HC79       44.3205    5.7676   23.9918 H         1 LIG    0.0000
@<TRIPOS>BOND
     1    1    8 1
     2    1   10 1
     3    1   12 1
     4    1   14 1
     5    2    7 1
     6    2    9 1
     7    2   11 1
     8    2   13 1
     9    3    4 1
    10    3    7 1
    11    4    5 1
    12    4   25 1
    13    5   43 1
    14    6    8 1
    15    6    9 1
    16   15   25 1
    17   15   26 1
    18   15   27 2
    19   16   17 1
    20   16   34 2
    21   17   18 1
    22   18   19 2
    23   19   20 1
    24   20   21 1
    25   21   22 1
    26   22   23 1
    27   23   24 1
    28   26   28 1
    29   28   29 1
    30   29   30 1
    31   30   31 1
    32   31   32 1
    33   32   33 1
    34   33   34 1
    35   35   43 1
    36   35   44 1
    37   35   45 2
    38   36   37 1
    39   36   52 1
    40   37   38 1
    41   38   39 1
    42   39   40 1
    43   40   41 1
    44   41   42 1
    45   44   46 1
    46   46   47 1
    47   47   48 1
    48   48   49 1
    49   49   50 1
    50   50   51 1
    51   51   52 1
    52   53    3 1
    53   54    3 1
    54   55    4 1
    55   56    5 1
    56   57    5 1
    57   58    6 1
    58   59    6 1
    59   60    8 1
    60   61    8 1
    61   62   16 1
    62   63   17 1
    63   64   17 1
    64   65   18 1
    65   66   19 1
    66   67   20 1
    67   68   20 1
    68   69   21 1
    69   70   21 1
    70   71   22 1
    71   72   22 1
    72   73   23 1
    73   74   23 1
    74   75   26 1
    75   76   26 1
    76   77   28 1
    77   78   28 1
    78   79   29 1
    79   80   29 1
    80   81   30 1
    81   82   30 1
    82   83   31 1
    83   84   31 1
    84   85   32 1
    85   86   32 1
    86   87   33 1
    87   88   33 1
    88   89   34 1
    89   90   36 1
    90   91   36 1
    91   92   37 1
    92   93   37 1
    93   94   38 1
    94   95   38 1
    95   96   39 1
    96   97   39 1
    97   98   40 1
    98   99   40 1
    99  100   41 1
   100  101   41 1
   101  102   44 1
   102  103   44 1
   103  104   46 1
   104  105   46 1
   105  106   47 1
   106  107   47 1
   107  108   48 1
   108  109   48 1
   109  110   49 1
   110  111   49 1
   111  112   50 1
   112  113   50 1
   113  114   51 1
   114  115   51 1
   115  116   52 1
   116  117   52 1
   117  118   10 1
   118  119   10 1
   119  120   10 1
   120  121   12 1
   121  122   12 1
   122  123   12 1
   123  124   14 1
   124  125   14 1
   125  126   14 1
   126  127   24 1
   127  128   24 1
   128  129   24 1
   129  130   42 1
   130  131   42 1
   131  132   42 1
@<TRIPOS>SUBSTRUCTURE
     1 LIG     1 RESIDUE           4 A     LIG     0 ROOT
@<TRIPOS>MOLECULE
Pose1.pdb
132 131 1 0 0
SMALL
NO_CHARGES


@<TRIPOS>ATOM
      1 N          35.7220   19.2640   11.4990 N.4       1 LIG    0.0000
      2 P          35.7220   24.1420   11.9410 P.3       1 LIG    0.0000
      3 C1         34.7050   25.7640   13.7900 C.3       1 LIG    0.0000
      4 C2         35.5380   27.1390   13.9300 C.3       1 LIG    0.0000
      5 C3         37.0340   26.8850   14.2380 C.3       1 LIG    0.0000
      6 C11        36.5230   21.7270   11.3110 C.3       1 LIG    0.0000
      7 O11        35.4060   24.5790   13.4140 O.3       1 LIG    0.0000
      8 C12        35.6730   20.6190   10.7640 C.3       1 LIG    0.0000
      9 O12        35.8130   22.5810   12.1940 O.3       1 LIG    0.0000
     10 C13        36.9410   19.1920   12.4080 C.3       1 LIG    0.0000
     11 O13        37.0370   24.6220   11.4230 O.co2     1 LIG    0.0000
     12 C14        34.5080   19.0710   12.4420 C.3       1 LIG    0.0000
     13 O14        34.6160   24.5450   11.0850 O.co2     1 LIG    0.0000
     14 C15        35.8640   18.0260   10.5850 C.3       1 LIG    0.0000
     15 C21        35.4010   29.1260   12.7540 C.2       1 LIG    0.0000
     16 C21        32.1480   31.2800   15.8300 C.2       1 LIG    0.0000
     17 C21        30.8330   30.9620   16.4940 C.3       1 LIG    0.0000
     18 C21        30.9380   30.1840   17.8010 C.2       1 LIG    0.0000
     19 C21        30.9440   30.8120   19.0180 C.2       1 LIG    0.0000
     20 C21        30.8740   32.3310   19.1770 C.3       1 LIG    0.0000
     21 C21        29.5140   32.8690   19.4800 C.3       1 LIG    0.0000
     22 C21        29.0380   34.1020   18.7060 C.3       1 LIG    0.0000
     23 C21        30.2340   34.7100   17.9300 C.3       1 LIG    0.0000
     24 C21        30.1630   34.3930   16.4160 C.3       1 LIG    0.0000
     25 O21        35.4050   27.7950   12.6780 O.3       1 LIG    0.0000
     26 C22        35.4310   29.7060   11.3380 C.3       1 LIG    0.0000
     27 O22        35.3620   29.8260   13.7700 O.2       1 LIG    0.0000
     28 C23        35.1590   31.2640   11.4230 C.3       1 LIG    0.0000
     29 C24        33.9500   31.8250   10.7740 C.3       1 LIG    0.0000
     30 C25        33.0610   30.6900   10.3180 C.3       1 LIG    0.0000
     31 C26        31.6350   30.7220   10.9590 C.3       1 LIG    0.0000
     32 C27        31.6790   30.2910   12.4160 C.3       1 LIG    0.0000
     33 C28        31.2820   31.3810   13.2990 C.3       1 LIG    0.0000
     34 C29        32.2780   31.4740   14.4420 C.2       1 LIG    0.0000
     35 C31        38.0120   25.3290   15.6860 C.2       1 LIG    0.0000
     36 C31        43.7060   22.5690   13.5890 C.3       1 LIG    0.0000
     37 C31        43.5070   23.8580   14.4050 C.3       1 LIG    0.0000
     38 C31        44.7220   24.8160   14.5120 C.3       1 LIG    0.0000
     39 C31        46.1010   24.2670   14.1230 C.3       1 LIG    0.0000
     40 C31        46.6710   25.1420   13.0400 C.3       1 LIG    0.0000
     41 C31        46.2340   24.6710   11.6310 C.3       1 LIG    0.0000
     42 C31        47.1220   25.2300   10.5310 C.3       1 LIG    0.0000
     43 O31        37.2290   26.3980   15.6000 O.3       1 LIG    0.0000
     44 C32        38.7870   25.2680   14.4680 C.3       1 LIG    0.0000
     45 O32        38.0880   24.5690   16.5990 O.2       1 LIG    0.0000
     46 C33        39.7940   24.0980   14.4080 C.3       1 LIG    0.0000
     47 C34        39.4210   22.9890   13.4390 C.3       1 LIG    0.0000
     48 C35        40.0560   21.6200   13.7610 C.3       1 LIG    0.0000
     49 C36        40.5110   21.4600   15.1910 C.3       1 LIG    0.0000
     50 C37        41.7220   20.4670   15.3850 C.3       1 LIG    0.0000
     51 C38        43.0650   21.2220   15.7620 C.3       1 LIG    0.0000
     52 C39        43.9760   21.3010   14.5260 C.3       1 LIG    0.0000
     53 HC1        33.9311   25.9315   13.0409 H         1 LIG    0.0000
     54 HC2        34.2121   25.5729   14.7432 H         1 LIG    0.0000
     55 HC         35.1007   27.7550   14.7157 H         1 LIG    0.0000
     56 HC3        37.4173   26.1418   13.5389 H         1 LIG    0.0000
     57 HC4        37.5876   27.8150   14.1090 H         1 LIG    0.0000
     58 HC5        37.3619   21.2879   11.8510 H         1 LIG    0.0000
     59 HC6        36.9084   22.3191   10.4809 H         1 LIG    0.0000
     60 HC7        34.6385   20.9621   10.7779 H         1 LIG    0.0000
     61 HC8        35.9607   20.4520    9.7260 H         1 LIG    0.0000
     62 HC9        33.0305   31.3628   16.4471 H         1 LIG    0.0000
     63 HC10       30.3238   31.9031   16.7017 H         1 LIG    0.0000
     64 HC11       30.2242   30.3862   15.7970 H         1 LIG    0.0000
     65 HC12       31.0097   29.1069   17.7661 H         1 LIG    0.0000
     66 HC13       31.0010   30.2045   19.9091 H         1 LIG    0.0000
     67 HC14       31.2184   32.7849   18.2478 H         1 LIG    0.0000
     68 HC15       31.5504   32.6271   19.9788 H         1 LIG    0.0000
     69 HC16       28.7990   32.0693   19.2864 H         1 LIG    0.0000
     70 HC17       29.4751   33.1043   20.5436 H         1 LIG    0.0000
     71 HC18       28.2571   33.8119   18.0030 H         1 LIG    0.0000
     72 HC19       28.6436   34.8404   19.4041 H         1 LIG    0.0000
     73 HC20       30.2271   35.7917   18.0638 H         1 LIG    0.0000
     74 HC21       31.1625   34.3073   18.3347 H         1 LIG    0.0000
     75 HC22       34.6601   29.2316   10.7308 H         1 LIG    0.0000
     76 HC23       36.4092   29.5292   10.8909 H         1 LIG    0.0000
     77 HC24       35.0994   31.5192   12.4810 H         1 LIG    0.0000
     78 HC25       36.0268   31.7756   11.0066 H         1 LIG    0.0000
     79 HC26       33.4094   32.4482   11.4864 H         1 LIG    0.0000
     80 HC27       34.2439   32.4261    9.9135 H         1 LIG    0.0000
     81 HC28       32.9542   30.7487    9.2348 H         1 LIG    0.0000
     82 HC29       33.5397   29.7445   10.5731 H         1 LIG    0.0000
     83 HC30       30.9819   30.0456   10.4076 H         1 LIG    0.0000
     84 HC31       31.2368   31.7347   10.8967 H         1 LIG    0.0000
     85 HC32       30.9987   29.4515   12.5593 H         1 LIG    0.0000
     86 HC33       32.6925   29.9778   12.6666 H         1 LIG    0.0000
     87 HC34       31.2746   32.3184   12.7428 H         1 LIG    0.0000
     88 HC35       30.2865   31.1845   13.6970 H         1 LIG    0.0000
     89 HC36       33.2772   31.7399   14.1300 H         1 LIG    0.0000
     90 HC37       42.8087   22.3849   12.9982 H         1 LIG    0.0000
     91 HC38       44.5536   22.7011   12.9166 H         1 LIG    0.0000
     92 HC39       42.6888   24.4141   13.9474 H         1 LIG    0.0000
     93 HC40       43.2051   23.5781   15.4142 H         1 LIG    0.0000
     94 HC41       44.5191   25.6717   13.8680 H         1 LIG    0.0000
     95 HC42       44.7795   25.1740   15.5399 H         1 LIG    0.0000
     96 HC43       46.7602   24.2788   14.9910 H         1 LIG    0.0000
     97 HC44       45.9987   23.2465   13.7541 H         1 LIG    0.0000
     98 HC45       46.3247   26.1641   13.1935 H         1 LIG    0.0000
     99 HC46       47.7591   25.1215   13.1011 H         1 LIG    0.0000
    100 HC47       46.2781   23.5824   11.5968 H         1 LIG    0.0000
    101 HC48       45.2069   24.9898   11.4535 H         1 LIG    0.0000
    102 HC49       38.0971   25.1667   13.6302 H         1 LIG    0.0000
    103 HC50       39.3343   26.2041   14.3567 H         1 LIG    0.0000
    104 HC51       40.7625   24.4987   14.1088 H         1 LIG    0.0000
    105 HC52       39.8886   23.6698   15.4059 H         1 LIG    0.0000
    106 HC53       38.3372   22.8738   13.4539 H         1 LIG    0.0000
    107 HC54       39.7256   23.2865   12.4356 H         1 LIG    0.0000
    108 HC55       39.3189   20.8453   13.5501 H         1 LIG    0.0000
    109 HC56       40.9136   21.4717   13.1048 H         1 LIG    0.0000
    110 HC57       40.8106   22.4392   15.5644 H         1 LIG    0.0000
    111 HC58       39.6701   21.1034   15.7857 H         1 LIG    0.0000
    112 HC59       41.4770   19.7675   16.1843 H         1 LIG    0.0000
    113 HC60       41.8756   19.9100   14.4608 H         1 LIG    0.0000
    114 HC61       42.8306   22.2298   16.1049 H         1 LIG    0.0000
    115 HC62       43.5767   20.6781   16.5560 H         1 LIG    0.0000
    116 HC63       43.8245   20.3995   13.9323 H         1 LIG    0.0000
    117 HC64       45.0135   21.3285   14.8591 H         1 LIG    0.0000
    118 HC65       37.0438   18.1799   12.7994 H         1 LIG    0.0000
    119 HC66       36.8185   19.8906   13.2357 H         1 LIG    0.0000
    120 HC67       37.8337   19.4544   11.8402 H         1 LIG    0.0000
    121 HC68       33.5864   19.1102   11.8613 H         1 LIG    0.0000
    122 HC69       34.5838   18.1034   12.9380 H         1 LIG    0.0000
    123 HC70       34.4998   19.8633   13.1905 H         1 LIG    0.0000
    124 HC71       35.0260   17.9896    9.8889 H         1 LIG    0.0000
    125 HC72       35.8686   17.1228   11.1952 H         1 LIG    0.0000
    126 HC73       36.7977   18.0919   10.0265 H         1 LIG    0.0000
    127 HC74       30.0761   35.3225   15.8533 H         1 LIG    0.0000
    128 HC75       29.2944   33.7654   16.2168 H         1 LIG    0.0000
    129 HC76       31.0683   33.8675   16.1120 H         1 LIG    0.0000
    130 HC77       46.7730   24.8697    9.5633 H         1 LIG    0.0000
    131 HC78       48.1490   24.9021   10.6917 H         1 LIG    0.0000
    132 HC79       47.0812   26.3191   10.5494 H         1 LIG    0.0000
@<TRIPOS>BOND
     1    1    8 1
     2    1   10 1
     3    1   12 1
     4    1   14 1
     5    2    7 1
     6    2    9 1
     7    2   11 1
     8    2   13 1
     9    3    4 1
    10    3    7 1
    11    4    5 1
    12    4   25 1
    13    5   43 1
    14    6    8 1
    15    6    9 1
    16   15   25 1
    17   15   26 1
    18   15   27 2
    19   16   17 1
    20   16   34 2
    21   17   18 1
    22   18   19 2
    23   19   20 1
    24   20   21 1
    25   21   22 1
    26   22   23 1
    27   23   24 1
    28   26   28 1
    29   28   29 1
    30   29   30 1
    31   30   31 1
    32   31   32 1
    33   32   33 1
    34   33   34 1
    35   35   43 1
    36   35   44 1
    37   35   45 2
    38   36   37 1
    39   36   52 1
    40   37   38 1
    41   38   39 1
    42   39   40 1
    43   40   41 1
    44   41   42 1
    45   44   46 1
    46   46   47 1
    47   47   48 1
    48   48   49 1
    49   49   50 1
    50   50   51 1
    51   51   52 1
    52   53    3 1
    53   54    3 1
    54   55    4 1
    55   56    5 1
    56   57    5 1
    57   58    6 1
    58   59    6 1
    59   60    8 1
    60   61    8 1
    61   62   16 1
    62   63   17 1
    63   64   17 1
    64   65   18 1
    65   66   19 1
    66   67   20 1
    67   68   20 1
    68   69   21 1
    69   70   21 1
    70   71   22 1
    71   72   22 1
    72   73   23 1
    73   74   23 1
    74   75   26 1
    75   76   26 1
    76   77   28 1
    77   78   28 1
    78   79   29 1
    79   80   29 1
    80   81   30 1
    81   82   30 1
    82   83   31 1
    83   84   31 1
    84   85   32 1
    85   86   32 1
    86   87   33 1
    87   88   33 1
    88   89   34 1
    89   90   36 1
    90   91   36 1
    91   92   37 1
    92   93   37 1
    93   94   38 1
    94   95   38 1
    95   96   39 1
    96   97   39 1
    97   98   40 1
    98   99   40 1
    99  100   41 1
   100  101   41 1
   101  102   44 1
   102  103   44 1
   103  104   46 1
   104  105   46 1
   105  106   47 1
   106  107   47 1
   107  108   48 1
   108  109   48 1
   109  110   49 1
   110  111   49 1
   111  112   50 1
   112  113   50 1
   113  114   51 1
   114  115   51 1
   115  116   52 1
   116  117   52 1
   117  118   10 1
   118  119   10 1
   119  120   10 1
   120  121   12 1
   121  122   12 1
   122  123   12 1
   123  124   14 1
   124  125   14 1
   125  126   14 1
   126  127   24 1
   127  128   24 1
   128  129   24 1
   129  130   42 1
   130  131   42 1
   131  132   42 1
@<TRIPOS>SUBSTRUCTURE
     1 LIG     1 RESIDUE           4 A     LIG     0 ROOT
