#

@<TRIPOS>MOLECULE
LIG
132 131  0 0 0
SMALL
GASTEIGER

@<TRIPOS>ATOM
      1 N          44.7880   -4.2980   20.3550 N.4       1 LIG         0.0000
      2 P          40.4780   -3.7660   20.9000 P.3       1 LIG         0.0000
      3 C1         40.6980   -3.8980   18.2510 C.3       1 LIG         0.0000
      4 C2         40.4990   -2.4880   17.4910 C.3       1 LIG         0.0000
      5 C3         41.7050   -1.5400   17.6970 C.3       1 LIG         0.0000
      6 C11        42.6030   -5.2070   21.4240 C.3       1 LIG         0.0000
      7 O11        41.2760   -3.8920   19.5560 O.3       1 LIG         0.0000
      8 C12        43.9940   -4.6810   21.6200 C.3       1 LIG         0.0000
      9 O12        41.6050   -4.3040   21.8730 O.3       1 LIG         0.0000
     10 C13        44.5570   -2.8350   20.0000 C.3       1 LIG         0.0000
     11 O13        39.2880   -4.6620   20.9990 O.co2     1 LIG         0.0000
     12 C14        46.3180   -4.4220   20.5690 C.3       1 LIG         0.0000
     13 O14        40.1280   -2.3680   21.1080 O.co2     1 LIG         0.0000
     14 C15        44.3870   -5.0600   19.0710 C.3       1 LIG         0.0000
     15 C21        39.1250   -3.1250   15.7420 C.2       1 LIG         0.0000
     16 C4         38.4930   -7.7460   13.2350 C.2       1 LIG         0.0000
     17 C5         38.7740   -7.8990   11.7620 C.3       1 LIG         0.0000
     18 C6         39.0630   -9.3230   11.3020 C.2       1 LIG         0.0000
     19 C7         39.9690   -9.5930   10.3110 C.2       1 LIG         0.0000
     20 C8         40.7440   -8.5070    9.5660 C.3       1 LIG         0.0000
     21 C9         41.5080   -8.9850    8.3740 C.3       1 LIG         0.0000
     22 C10        40.9820   -8.6170    6.9840 C.3       1 LIG         0.0000
     23 C16        42.1360   -8.0120    6.1450 C.3       1 LIG         0.0000
     24 C17        43.3360   -7.5930    7.0290 C.3       1 LIG         0.0000
     25 O21        40.3680   -2.8130   16.1150 O.3       1 LIG         0.0000
     26 C22        39.1610   -4.4170   14.9230 C.3       1 LIG         0.0000
     27 O22        38.0830   -2.5190   16.0020 O.2       1 LIG         0.0000
     28 C23        39.9980   -4.1570   13.6040 C.3       1 LIG         0.0000
     29 C24        39.3140   -4.2050   12.2890 C.3       1 LIG         0.0000
     30 C25        37.8890   -3.7250   12.4550 C.3       1 LIG         0.0000
     31 C26        36.8250   -4.7440   11.9320 C.3       1 LIG         0.0000
     32 C27        36.0030   -5.3150   13.0750 C.3       1 LIG         0.0000
     33 C28        36.0060   -6.7730   13.0480 C.3       1 LIG         0.0000
     34 C29        37.2650   -7.2730   13.7350 C.2       1 LIG         0.0000
     35 C31        42.3300    0.4810   18.6980 C.2       1 LIG         0.0000
     36 C18        39.8500    7.2470   26.5600 C.3       1 LIG         0.0000
     37 C19        39.8210    8.3520   25.4900 C.3       1 LIG         0.0000
     38 C20        41.1810    8.9910   25.1040 C.3       1 LIG         0.0000
     39 C30        41.5840    8.9740   23.6240 C.3       1 LIG         0.0000
     40 C32        42.5900    7.8740   23.4190 C.3       1 LIG         0.0000
     41 C33        43.3320    7.5230   24.7320 C.3       1 LIG         0.0000
     42 C34        44.5880    6.7010   24.4870 C.3       1 LIG         0.0000
     43 O31        41.3780   -0.4380   18.5990 O.3       1 LIG         0.0000
     44 C35        41.6890    1.7230   19.0670 C.3       1 LIG         0.0000
     45 O32        43.4980    0.3210   18.5390 O.2       1 LIG         0.0000
     46 C36        42.0030    2.2030   20.5010 C.3       1 LIG         0.0000
     47 C37        41.1080    1.6150   21.5780 C.3       1 LIG         0.0000
     48 C38        40.2320    2.6500   22.3160 C.3       1 LIG         0.0000
     49 C39        41.0050    3.7290   23.0330 C.3       1 LIG         0.0000
     50 C40        40.4590    4.0800   24.4710 C.3       1 LIG         0.0000
     51 C41        39.8580    5.5460   24.5450 C.3       1 LIG         0.0000
     52 C42        39.3770    5.8340   25.9780 C.3       1 LIG         0.0000
     53 HC1        39.7140   -4.3589   18.3370 H         1 LIG         0.0000
     54 HC2        41.3121   -4.5366   17.6160 H         1 LIG         0.0000
     55 HC         39.5874   -2.0055   17.8435 H         1 LIG         0.0000
     56 HC3        42.5331   -2.1088   18.1200 H         1 LIG         0.0000
     57 HC4        42.0078   -1.1333   16.7321 H         1 LIG         0.0000
     58 HC5        42.4488   -5.3960   20.3616 H         1 LIG         0.0000
     59 HC6        42.5005   -6.1458   21.9683 H         1 LIG         0.0000
     60 HC7        44.5635   -5.4482   22.1446 H         1 LIG         0.0000
     61 HC8        43.9366   -3.8026   22.2629 H         1 LIG         0.0000
     62 HC9        39.2685   -8.0111   13.9383 H         1 LIG         0.0000
     63 HC10       37.9043   -7.5373   11.2134 H         1 LIG         0.0000
     64 HC11       39.6289   -7.2730   11.5063 H         1 LIG         0.0000
     65 HC12       38.5385  -10.1424   11.7708 H         1 LIG         0.0000
     66 HC13       40.1443  -10.6244   10.0428 H         1 LIG         0.0000
     67 HC14       40.0323   -7.7522    9.2315 H         1 LIG         0.0000
     68 HC15       41.4423   -8.0409   10.2611 H         1 LIG         0.0000
     69 HC16       42.5178   -8.5827    8.4545 H         1 LIG         0.0000
     70 HC17       41.5740  -10.0715    8.4311 H         1 LIG         0.0000
     71 HC18       40.6023   -9.5112    6.4897 H         1 LIG         0.0000
     72 HC19       40.1795   -7.8856    7.0802 H         1 LIG         0.0000
     73 HC20       41.7644   -7.1340    5.6167 H         1 LIG         0.0000
     74 HC21       42.4713   -8.7502    5.4165 H         1 LIG         0.0000
     75 HC22       39.6319   -5.2082   15.5064 H         1 LIG         0.0000
     76 HC23       38.1452   -4.7117   14.6596 H         1 LIG         0.0000
     77 HC24       40.4380   -3.1642   13.6973 H         1 LIG         0.0000
     78 HC25       40.8132   -4.8802   13.5805 H         1 LIG         0.0000
     79 HC26       39.8363   -3.5602   11.5822 H         1 LIG         0.0000
     80 HC27       39.3126   -5.2292   11.9159 H         1 LIG         0.0000
     81 HC28       37.7056   -3.5477   13.5147 H         1 LIG         0.0000
     82 HC29       37.7699   -2.7851   11.9159 H         1 LIG         0.0000
     83 HC30       36.1591   -4.2360   11.2344 H         1 LIG         0.0000
     84 HC31       37.3326   -5.5579   11.4144 H         1 LIG         0.0000
     85 HC32       36.4254   -4.9759   14.0209 H         1 LIG         0.0000
     86 HC33       34.9768   -4.9572   12.9920 H         1 LIG         0.0000
     87 HC34       35.1282   -7.1507   13.5723 H         1 LIG         0.0000
     88 HC35       35.9916   -7.1193   12.0146 H         1 LIG         0.0000
     89 HC36       37.2070   -7.2639   14.8134 H         1 LIG         0.0000
     90 HC37       40.8682    7.1490   26.9365 H         1 LIG         0.0000
     91 HC38       39.1929    7.5308   27.3820 H         1 LIG         0.0000
     92 HC39       39.3903    7.9229   24.5853 H         1 LIG         0.0000
     93 HC40       39.1594    9.1452   25.8383 H         1 LIG         0.0000
     94 HC41       41.9571    8.4634   25.6584 H         1 LIG         0.0000
     95 HC42       41.1733   10.0281   25.4393 H         1 LIG         0.0000
     96 HC43       40.7057    8.7896   23.0054 H         1 LIG         0.0000
     97 HC44       42.0281    9.9321   23.3539 H         1 LIG         0.0000
     98 HC45       42.0725    6.9853   23.0577 H         1 LIG         0.0000
     99 HC46       43.3178    8.1911   22.6721 H         1 LIG         0.0000
    100 HC47       43.6124    8.4492   25.2337 H         1 LIG         0.0000
    101 HC48       42.6600    6.9590   25.3789 H         1 LIG         0.0000
    102 HC49       42.0157    2.4950   18.3703 H         1 LIG         0.0000
    103 HC50       40.6103    1.6002   18.9695 H         1 LIG         0.0000
    104 HC51       43.0335    1.9326   20.7313 H         1 LIG         0.0000
    105 HC52       41.9142    3.2890   20.5307 H         1 LIG         0.0000
    106 HC53       41.7411    1.1185   22.3134 H         1 LIG         0.0000
    107 HC54       40.4563    0.8705   21.1207 H         1 LIG         0.0000
    108 HC55       39.5807    3.1277   21.5841 H         1 LIG         0.0000
    109 HC56       39.6120    2.1253   23.0429 H         1 LIG         0.0000
    110 HC57       42.0386    3.3977   23.1330 H         1 LIG         0.0000
    111 HC58       40.9869    4.6328   22.4240 H         1 LIG         0.0000
    112 HC59       39.6771    3.3671   24.7327 H         1 LIG         0.0000
    113 HC60       41.2732    3.9936   25.1905 H         1 LIG         0.0000
    114 HC61       40.6267    6.2676   24.2684 H         1 LIG         0.0000
    115 HC62       39.0173    5.6290   23.8562 H         1 LIG         0.0000
    116 HC63       39.7612    5.0502   26.6308 H         1 LIG         0.0000
    117 HC64       38.2877    5.7977   25.9938 H         1 LIG         0.0000
    118 HC65       44.8150   -2.2083   20.8537 H         1 LIG         0.0000
    119 HC66       45.1823   -2.5648   19.1491 H         1 LIG         0.0000
    120 HC67       43.5085   -2.6847   19.7427 H         1 LIG         0.0000
    121 HC68       46.5668   -5.4508   20.8292 H         1 LIG         0.0000
    122 HC69       46.8367   -4.1439   19.6515 H         1 LIG         0.0000
    123 HC70       46.6269   -3.7582   21.3765 H         1 LIG         0.0000
    124 HC71       44.5192   -6.1306   19.2270 H         1 LIG         0.0000
    125 HC72       43.3426   -4.8534   18.8374 H         1 LIG         0.0000
    126 HC73       45.0160   -4.7331   18.2430 H         1 LIG         0.0000
    127 HC74       44.0201   -6.9767    6.4456 H         1 LIG         0.0000
    128 HC75       43.8580   -8.4838    7.3785 H         1 LIG         0.0000
    129 HC76       42.9750   -7.0239    7.8857 H         1 LIG         0.0000
    130 HC77       45.0708    6.4817   25.4393 H         1 LIG         0.0000
    131 HC78       45.2732    7.2648   23.8539 H         1 LIG         0.0000
    132 HC79       44.3205    5.7676   23.9918 H         1 LIG         0.0000
@<TRIPOS>BOND
     1    1    8 1  
     2    1   10 1  
     3    1   12 1  
     4    1   14 1  
     5    2    7 1  
     6    2    9 1  
     7    2   11 1  
     8    2   13 1  
     9    3    4 1  
    10    3    7 1  
    11    4    5 1  
    12    4   25 1  
    13    5   43 1  
    14    6    8 1  
    15    6    9 1  
    16   15   25 1  
    17   15   26 1  
    18   15   27 2  
    19   16   17 1  
    20   16   34 2  
    21   17   18 1  
    22   18   19 2  
    23   19   20 1  
    24   20   21 1  
    25   21   22 1  
    26   22   23 1  
    27   23   24 1  
    28   26   28 1  
    29   28   29 1  
    30   29   30 1  
    31   30   31 1  
    32   31   32 1  
    33   32   33 1  
    34   33   34 1  
    35   35   43 1  
    36   35   44 1  
    37   35   45 2  
    38   36   37 1  
    39   36   52 1  
    40   37   38 1  
    41   38   39 1  
    42   39   40 1  
    43   40   41 1  
    44   41   42 1  
    45   44   46 1  
    46   46   47 1  
    47   47   48 1  
    48   48   49 1  
    49   49   50 1  
    50   50   51 1  
    51   51   52 1  
    52   53    3 1  
    53   54    3 1  
    54   55    4 1  
    55   56    5 1  
    56   57    5 1  
    57   58    6 1  
    58   59    6 1  
    59   60    8 1  
    60   61    8 1  
    61   62   16 1  
    62   63   17 1  
    63   64   17 1  
    64   65   18 1  
    65   66   19 1  
    66   67   20 1  
    67   68   20 1  
    68   69   21 1  
    69   70   21 1  
    70   71   22 1  
    71   72   22 1  
    72   73   23 1  
    73   74   23 1  
    74   75   26 1  
    75   76   26 1  
    76   77   28 1  
    77   78   28 1  
    78   79   29 1  
    79   80   29 1  
    80   81   30 1  
    81   82   30 1  
    82   83   31 1  
    83   84   31 1  
    84   85   32 1  
    85   86   32 1  
    86   87   33 1  
    87   88   33 1  
    88   89   34 1  
    89   90   36 1  
    90   91   36 1  
    91   92   37 1  
    92   93   37 1  
    93   94   38 1  
    94   95   38 1  
    95   96   39 1  
    96   97   39 1  
    97   98   40 1  
    98   99   40 1  
    99  100   41 1  
   100  101   41 1  
   101  102   44 1  
   102  103   44 1  
   103  104   46 1  
   104  105   46 1  
   105  106   47 1  
   106  107   47 1  
   107  108   48 1  
   108  109   48 1  
   109  110   49 1  
   110  111   49 1  
   111  112   50 1  
   112  113   50 1  
   113  114   51 1  
   114  115   51 1  
   115  116   52 1  
   116  117   52 1  
   117  118   10 1  
   118  119   10 1  
   119  120   10 1  
   120  121   12 1  
   121  122   12 1  
   122  123   12 1  
   123  124   14 1  
   124  125   14 1  
   125  126   14 1  
   126  127   24 1  
   127  128   24 1  
   128  129   24 1  
   129  130   42 1  
   130  131   42 1  
   131  132   42 1  
