@<TRIPOS>MOLECULE
Pose2.pdb
132 131 1 0 0
SMALL
NO_CHARGES


@<TRIPOS>ATOM
      1 N          34.5300   33.0480   39.5730 N.4       1 LIG    0.0000
      2 P          35.9990   32.8510   35.1080 P.3       1 LIG    0.0000
      3 C1         34.3370   31.9230   33.2480 C.3       1 LIG    0.0000
      4 C2         33.7930   30.5110   32.6860 C.3       1 LIG    0.0000
      5 C3         32.2790   30.3240   32.9510 C.3       1 LIG    0.0000
      6 C11        34.6240   32.0350   37.1850 C.3       1 LIG    0.0000
      7 O11        35.6180   31.9560   33.8770 O.3       1 LIG    0.0000
      8 C12        33.8450   32.7970   38.2150 C.3       1 LIG    0.0000
      9 O12        34.6520   32.6840   35.9230 O.3       1 LIG    0.0000
     10 C13        34.1250   31.9820   40.5830 C.3       1 LIG    0.0000
     11 O13        36.1910   34.2960   34.7860 O.co2     1 LIG    0.0000
     12 C14        36.0730   32.9390   39.4740 C.3       1 LIG    0.0000
     13 O14        37.1670   32.2770   35.7610 O.co2     1 LIG    0.0000
     14 C15        34.1540   34.3780   40.2640 C.3       1 LIG    0.0000
     15 C21        35.0870   29.8020   30.9050 C.2       1 LIG    0.0000
     16 C21        28.6380   24.8480   29.7720 C.2       1 LIG    0.0000
     17 C21        27.6560   25.6690   28.9760 C.3       1 LIG    0.0000
     18 C21        26.2020   25.5470   29.4170 C.2       1 LIG    0.0000
     19 C21        25.3100   26.5750   29.2600 C.2       1 LIG    0.0000
     20 C21        25.6890   27.9290   28.6610 C.3       1 LIG    0.0000
     21 C21        26.1440   28.9500   29.6520 C.3       1 LIG    0.0000
     22 C21        25.0790   29.8000   30.3520 C.3       1 LIG    0.0000
     23 C21        25.6520   31.2140   30.6230 C.3       1 LIG    0.0000
     24 C21        27.1400   31.3250   30.2080 C.3       1 LIG    0.0000
     25 O21        34.0410   30.5360   31.2890 O.3       1 LIG    0.0000
     26 C22        35.0430   29.6290   29.3860 C.3       1 LIG    0.0000
     27 O22        35.9810   29.3310   31.6130 O.2       1 LIG    0.0000
     28 C23        33.8250   28.6880   29.0170 C.3       1 LIG    0.0000
     29 C24        34.0160   27.2180   29.0240 C.3       1 LIG    0.0000
     30 C25        32.8620   26.5660   28.2950 C.3       1 LIG    0.0000
     31 C26        33.1610   25.0980   27.8450 C.3       1 LIG    0.0000
     32 C27        31.9360   24.2150   28.0060 C.3       1 LIG    0.0000
     33 C28        30.7190   25.0130   28.0940 C.3       1 LIG    0.0000
     34 C29        29.9620   24.6170   29.3500 C.2       1 LIG    0.0000
     35 C31        30.5740   31.0650   34.3720 C.2       1 LIG    0.0000
     36 C31        23.5180   23.8370   34.6970 C.3       1 LIG    0.0000
     37 C31        24.7660   23.0290   34.3020 C.3       1 LIG    0.0000
     38 C31        26.1230   23.7800   34.3190 C.3       1 LIG    0.0000
     39 C31        27.1440   23.4350   33.2270 C.3       1 LIG    0.0000
     40 C31        28.5000   23.9060   33.6810 C.3       1 LIG    0.0000
     41 C31        28.9070   23.2700   35.0330 C.3       1 LIG    0.0000
     42 C31        30.0180   24.0420   35.7260 C.3       1 LIG    0.0000
     43 O31        31.7550   31.3570   33.8410 O.3       1 LIG    0.0000
     44 C32        29.6800   30.7490   33.2810 C.3       1 LIG    0.0000
     45 O32        30.2960   31.0400   35.5290 O.2       1 LIG    0.0000
     46 C33        28.3930   30.0060   33.7020 C.3       1 LIG    0.0000
     47 C34        28.3740   28.5250   33.3610 C.3       1 LIG    0.0000
     48 C35        27.0990   27.7830   33.8100 C.3       1 LIG    0.0000
     49 C36        26.3600   27.0760   32.7010 C.3       1 LIG    0.0000
     50 C37        24.7880   27.1170   32.8320 C.3       1 LIG    0.0000
     51 C38        24.1520   25.6650   32.9080 C.3       1 LIG    0.0000
     52 C39        23.6680   25.3890   34.3410 C.3       1 LIG    0.0000
     53 HC1        34.3746   32.6123   32.4045 H         1 LIG    0.0000
     54 HC2        33.6048   32.3045   33.9596 H         1 LIG    0.0000
     55 HC         34.3502   29.6937   33.1439 H         1 LIG    0.0000
     56 HC3        31.7457   30.3720   32.0016 H         1 LIG    0.0000
     57 HC4        32.1142   29.3462   33.4036 H         1 LIG    0.0000
     58 HC5        35.6483   31.9189   37.5392 H         1 LIG    0.0000
     59 HC6        34.1782   31.0477   37.0644 H         1 LIG    0.0000
     60 HC7        32.9270   32.2420   38.4085 H         1 LIG    0.0000
     61 HC8        33.5736   33.7628   37.7887 H         1 LIG    0.0000
     62 HC9        28.3121   24.4177   30.7074 H         1 LIG    0.0000
     63 HC10       27.7200   25.3548   27.9342 H         1 LIG    0.0000
     64 HC11       27.9498   26.7167   29.0397 H         1 LIG    0.0000
     65 HC12       25.8655   24.6242   29.8659 H         1 LIG    0.0000
     66 HC13       24.2885   26.4209   29.5751 H         1 LIG    0.0000
     67 HC14       24.8162   28.3260   28.1425 H         1 LIG    0.0000
     68 HC15       26.4847   27.7749   27.9321 H         1 LIG    0.0000
     69 HC16       26.6990   28.4229   30.4281 H         1 LIG    0.0000
     70 HC17       26.8336   29.6255   29.1458 H         1 LIG    0.0000
     71 HC18       24.8022   29.3319   31.2966 H         1 LIG    0.0000
     72 HC19       24.1992   29.8798   29.7135 H         1 LIG    0.0000
     73 HC20       25.0731   31.9430   30.0560 H         1 LIG    0.0000
     74 HC21       25.5615   31.4369   31.6861 H         1 LIG    0.0000
     75 HC22       35.9730   29.1769   29.0415 H         1 LIG    0.0000
     76 HC23       34.9111   30.6011   28.9109 H         1 LIG    0.0000
     77 HC24       33.0269   28.9082   29.7260 H         1 LIG    0.0000
     78 HC25       33.4749   28.9723   28.0247 H         1 LIG    0.0000
     79 HC26       34.0474   26.8589   30.0527 H         1 LIG    0.0000
     80 HC27       34.9512   26.9695   28.5223 H         1 LIG    0.0000
     81 HC28       31.9969   26.5545   28.9581 H         1 LIG    0.0000
     82 HC29       32.6216   27.1614   27.4142 H         1 LIG    0.0000
     83 HC30       33.9709   24.6972   28.4546 H         1 LIG    0.0000
     84 HC31       33.4668   25.0992   26.7988 H         1 LIG    0.0000
     85 HC32       31.8627   23.5486   27.1465 H         1 LIG    0.0000
     86 HC33       32.0403   23.6196   28.9130 H         1 LIG    0.0000
     87 HC34       30.0966   24.8290   27.2183 H         1 LIG    0.0000
     88 HC35       30.9784   26.0706   28.1420 H         1 LIG    0.0000
     89 HC36       30.5520   24.0496   30.0545 H         1 LIG    0.0000
     90 HC37       23.3599   23.7366   35.7708 H         1 LIG    0.0000
     91 HC38       22.6525   23.4338   34.1712 H         1 LIG    0.0000
     92 HC39       24.6094   22.6552   33.2901 H         1 LIG    0.0000
     93 HC40       24.8429   22.1730   34.9724 H         1 LIG    0.0000
     94 HC41       25.9063   24.8451   34.2368 H         1 LIG    0.0000
     95 HC42       26.5928   23.6054   35.2869 H         1 LIG    0.0000
     96 HC43       27.1629   22.3569   33.0678 H         1 LIG    0.0000
     97 HC44       26.8727   23.9382   32.2990 H         1 LIG    0.0000
     98 HC45       29.2385   23.6341   32.9268 H         1 LIG    0.0000
     99 HC46       28.4830   24.9906   33.7882 H         1 LIG    0.0000
    100 HC47       28.0349   23.2495   35.6866 H         1 LIG    0.0000
    101 HC48       29.2421   22.2478   34.8572 H         1 LIG    0.0000
    102 HC49       29.3914   31.6818   32.7965 H         1 LIG    0.0000
    103 HC50       30.2165   30.1335   32.5589 H         1 LIG    0.0000
    104 HC51       28.2804   30.1072   34.7814 H         1 LIG    0.0000
    105 HC52       27.5417   30.4846   33.2179 H         1 LIG    0.0000
    106 HC53       28.4642   28.4234   32.2795 H         1 LIG    0.0000
    107 HC54       29.2362   28.0493   33.8283 H         1 LIG    0.0000
    108 HC55       27.3827   27.0409   34.5563 H         1 LIG    0.0000
    109 HC56       26.4239   28.5019   34.2741 H         1 LIG    0.0000
    110 HC57       26.6351   27.5446   31.7561 H         1 LIG    0.0000
    111 HC58       26.6801   26.0343   32.6788 H         1 LIG    0.0000
    112 HC59       24.5260   27.6622   33.7388 H         1 LIG    0.0000
    113 HC60       24.3738   27.6411   31.9707 H         1 LIG    0.0000
    114 HC61       23.3076   25.6025   32.2216 H         1 LIG    0.0000
    115 HC62       24.9022   24.9250   32.6292 H         1 LIG    0.0000
    116 HC63       22.6957   25.8644   34.4704 H         1 LIG    0.0000
    117 HC64       24.3724   25.8403   35.0397 H         1 LIG    0.0000
    118 HC65       34.3538   30.9948   40.1815 H         1 LIG    0.0000
    119 HC66       34.6762   32.1332   41.5111 H         1 LIG    0.0000
    120 HC67       33.0554   32.0554   40.7795 H         1 LIG    0.0000
    121 HC68       36.5271   33.3937   40.3544 H         1 LIG    0.0000
    122 HC69       36.4170   33.4577   38.5792 H         1 LIG    0.0000
    123 HC70       36.3602   31.8890   39.4183 H         1 LIG    0.0000
    124 HC71       34.4091   35.2123   39.6106 H         1 LIG    0.0000
    125 HC72       34.7043   34.4689   41.2005 H         1 LIG    0.0000
    126 HC73       33.0835   34.3910   40.4689 H         1 LIG    0.0000
    127 HC74       27.5132   32.3191   30.4541 H         1 LIG    0.0000
    128 HC75       27.2310   31.1585   29.1346 H         1 LIG    0.0000
    129 HC76       27.7232   30.5753   30.7427 H         1 LIG    0.0000
    130 HC77       30.2661   23.5549   36.6690 H         1 LIG    0.0000
    131 HC78       29.6850   25.0615   35.9206 H         1 LIG    0.0000
    132 HC79       30.8996   24.0638   35.0853 H         1 LIG    0.0000
@<TRIPOS>BOND
     1    1    8 1
     2    1   10 1
     3    1   12 1
     4    1   14 1
     5    2    7 1
     6    2    9 1
     7    2   11 1
     8    2   13 1
     9    3    4 1
    10    3    7 1
    11    4    5 1
    12    4   25 1
    13    5   43 1
    14    6    8 1
    15    6    9 1
    16   15   25 1
    17   15   26 1
    18   15   27 2
    19   16   17 1
    20   16   34 2
    21   17   18 1
    22   18   19 2
    23   19   20 1
    24   20   21 1
    25   21   22 1
    26   22   23 1
    27   23   24 1
    28   26   28 1
    29   28   29 1
    30   29   30 1
    31   30   31 1
    32   31   32 1
    33   32   33 1
    34   33   34 1
    35   35   43 1
    36   35   44 1
    37   35   45 2
    38   36   37 1
    39   36   52 1
    40   37   38 1
    41   38   39 1
    42   39   40 1
    43   40   41 1
    44   41   42 1
    45   44   46 1
    46   46   47 1
    47   47   48 1
    48   48   49 1
    49   49   50 1
    50   50   51 1
    51   51   52 1
    52   53    3 1
    53   54    3 1
    54   55    4 1
    55   56    5 1
    56   57    5 1
    57   58    6 1
    58   59    6 1
    59   60    8 1
    60   61    8 1
    61   62   16 1
    62   63   17 1
    63   64   17 1
    64   65   18 1
    65   66   19 1
    66   67   20 1
    67   68   20 1
    68   69   21 1
    69   70   21 1
    70   71   22 1
    71   72   22 1
    72   73   23 1
    73   74   23 1
    74   75   26 1
    75   76   26 1
    76   77   28 1
    77   78   28 1
    78   79   29 1
    79   80   29 1
    80   81   30 1
    81   82   30 1
    82   83   31 1
    83   84   31 1
    84   85   32 1
    85   86   32 1
    86   87   33 1
    87   88   33 1
    88   89   34 1
    89   90   36 1
    90   91   36 1
    91   92   37 1
    92   93   37 1
    93   94   38 1
    94   95   38 1
    95   96   39 1
    96   97   39 1
    97   98   40 1
    98   99   40 1
    99  100   41 1
   100  101   41 1
   101  102   44 1
   102  103   44 1
   103  104   46 1
   104  105   46 1
   105  106   47 1
   106  107   47 1
   107  108   48 1
   108  109   48 1
   109  110   49 1
   110  111   49 1
   111  112   50 1
   112  113   50 1
   113  114   51 1
   114  115   51 1
   115  116   52 1
   116  117   52 1
   117  118   10 1
   118  119   10 1
   119  120   10 1
   120  121   12 1
   121  122   12 1
   122  123   12 1
   123  124   14 1
   124  125   14 1
   125  126   14 1
   126  127   24 1
   127  128   24 1
   128  129   24 1
   129  130   42 1
   130  131   42 1
   131  132   42 1
@<TRIPOS>SUBSTRUCTURE
     1 LIG     1 RESIDUE           4 A     LIG     0 ROOT
@<TRIPOS>MOLECULE
Pose1.pdb
132 131 1 0 0
SMALL
NO_CHARGES


@<TRIPOS>ATOM
      1 N          35.7220   19.2640   11.4990 N.4       1 LIG    0.0000
      2 P          35.7220   24.1420   11.9410 P.3       1 LIG    0.0000
      3 C1         34.7050   25.7640   13.7900 C.3       1 LIG    0.0000
      4 C2         35.5380   27.1390   13.9300 C.3       1 LIG    0.0000
      5 C3         37.0340   26.8850   14.2380 C.3       1 LIG    0.0000
      6 C11        36.5230   21.7270   11.3110 C.3       1 LIG    0.0000
      7 O11        35.4060   24.5790   13.4140 O.3       1 LIG    0.0000
      8 C12        35.6730   20.6190   10.7640 C.3       1 LIG    0.0000
      9 O12        35.8130   22.5810   12.1940 O.3       1 LIG    0.0000
     10 C13        36.9410   19.1920   12.4080 C.3       1 LIG    0.0000
     11 O13        37.0370   24.6220   11.4230 O.co2     1 LIG    0.0000
     12 C14        34.5080   19.0710   12.4420 C.3       1 LIG    0.0000
     13 O14        34.6160   24.5450   11.0850 O.co2     1 LIG    0.0000
     14 C15        35.8640   18.0260   10.5850 C.3       1 LIG    0.0000
     15 C21        35.4010   29.1260   12.7540 C.2       1 LIG    0.0000
     16 C21        32.1480   31.2800   15.8300 C.2       1 LIG    0.0000
     17 C21        30.8330   30.9620   16.4940 C.3       1 LIG    0.0000
     18 C21        30.9380   30.1840   17.8010 C.2       1 LIG    0.0000
     19 C21        30.9440   30.8120   19.0180 C.2       1 LIG    0.0000
     20 C21        30.8740   32.3310   19.1770 C.3       1 LIG    0.0000
     21 C21        29.5140   32.8690   19.4800 C.3       1 LIG    0.0000
     22 C21        29.0380   34.1020   18.7060 C.3       1 LIG    0.0000
     23 C21        30.2340   34.7100   17.9300 C.3       1 LIG    0.0000
     24 C21        30.1630   34.3930   16.4160 C.3       1 LIG    0.0000
     25 O21        35.4050   27.7950   12.6780 O.3       1 LIG    0.0000
     26 C22        35.4310   29.7060   11.3380 C.3       1 LIG    0.0000
     27 O22        35.3620   29.8260   13.7700 O.2       1 LIG    0.0000
     28 C23        35.1590   31.2640   11.4230 C.3       1 LIG    0.0000
     29 C24        33.9500   31.8250   10.7740 C.3       1 LIG    0.0000
     30 C25        33.0610   30.6900   10.3180 C.3       1 LIG    0.0000
     31 C26        31.6350   30.7220   10.9590 C.3       1 LIG    0.0000
     32 C27        31.6790   30.2910   12.4160 C.3       1 LIG    0.0000
     33 C28        31.2820   31.3810   13.2990 C.3       1 LIG    0.0000
     34 C29        32.2780   31.4740   14.4420 C.2       1 LIG    0.0000
     35 C31        38.0120   25.3290   15.6860 C.2       1 LIG    0.0000
     36 C31        43.7060   22.5690   13.5890 C.3       1 LIG    0.0000
     37 C31        43.5070   23.8580   14.4050 C.3       1 LIG    0.0000
     38 C31        44.7220   24.8160   14.5120 C.3       1 LIG    0.0000
     39 C31        46.1010   24.2670   14.1230 C.3       1 LIG    0.0000
     40 C31        46.6710   25.1420   13.0400 C.3       1 LIG    0.0000
     41 C31        46.2340   24.6710   11.6310 C.3       1 LIG    0.0000
     42 C31        47.1220   25.2300   10.5310 C.3       1 LIG    0.0000
     43 O31        37.2290   26.3980   15.6000 O.3       1 LIG    0.0000
     44 C32        38.7870   25.2680   14.4680 C.3       1 LIG    0.0000
     45 O32        38.0880   24.5690   16.5990 O.2       1 LIG    0.0000
     46 C33        39.7940   24.0980   14.4080 C.3       1 LIG    0.0000
     47 C34        39.4210   22.9890   13.4390 C.3       1 LIG    0.0000
     48 C35        40.0560   21.6200   13.7610 C.3       1 LIG    0.0000
     49 C36        40.5110   21.4600   15.1910 C.3       1 LIG    0.0000
     50 C37        41.7220   20.4670   15.3850 C.3       1 LIG    0.0000
     51 C38        43.0650   21.2220   15.7620 C.3       1 LIG    0.0000
     52 C39        43.9760   21.3010   14.5260 C.3       1 LIG    0.0000
     53 HC1        33.9311   25.9315   13.0409 H         1 LIG    0.0000
     54 HC2        34.2121   25.5729   14.7432 H         1 LIG    0.0000
     55 HC         35.1007   27.7550   14.7157 H         1 LIG    0.0000
     56 HC3        37.4173   26.1418   13.5389 H         1 LIG    0.0000
     57 HC4        37.5876   27.8150   14.1090 H         1 LIG    0.0000
     58 HC5        37.3619   21.2879   11.8510 H         1 LIG    0.0000
     59 HC6        36.9084   22.3191   10.4809 H         1 LIG    0.0000
     60 HC7        34.6385   20.9621   10.7779 H         1 LIG    0.0000
     61 HC8        35.9607   20.4520    9.7260 H         1 LIG    0.0000
     62 HC9        33.0305   31.3628   16.4471 H         1 LIG    0.0000
     63 HC10       30.3238   31.9031   16.7017 H         1 LIG    0.0000
     64 HC11       30.2242   30.3862   15.7970 H         1 LIG    0.0000
     65 HC12       31.0097   29.1069   17.7661 H         1 LIG    0.0000
     66 HC13       31.0010   30.2045   19.9091 H         1 LIG    0.0000
     67 HC14       31.2184   32.7849   18.2478 H         1 LIG    0.0000
     68 HC15       31.5504   32.6271   19.9788 H         1 LIG    0.0000
     69 HC16       28.7990   32.0693   19.2864 H         1 LIG    0.0000
     70 HC17       29.4751   33.1043   20.5436 H         1 LIG    0.0000
     71 HC18       28.2571   33.8119   18.0030 H         1 LIG    0.0000
     72 HC19       28.6436   34.8404   19.4041 H         1 LIG    0.0000
     73 HC20       30.2271   35.7917   18.0638 H         1 LIG    0.0000
     74 HC21       31.1625   34.3073   18.3347 H         1 LIG    0.0000
     75 HC22       34.6601   29.2316   10.7308 H         1 LIG    0.0000
     76 HC23       36.4092   29.5292   10.8909 H         1 LIG    0.0000
     77 HC24       35.0994   31.5192   12.4810 H         1 LIG    0.0000
     78 HC25       36.0268   31.7756   11.0066 H         1 LIG    0.0000
     79 HC26       33.4094   32.4482   11.4864 H         1 LIG    0.0000
     80 HC27       34.2439   32.4261    9.9135 H         1 LIG    0.0000
     81 HC28       32.9542   30.7487    9.2348 H         1 LIG    0.0000
     82 HC29       33.5397   29.7445   10.5731 H         1 LIG    0.0000
     83 HC30       30.9819   30.0456   10.4076 H         1 LIG    0.0000
     84 HC31       31.2368   31.7347   10.8967 H         1 LIG    0.0000
     85 HC32       30.9987   29.4515   12.5593 H         1 LIG    0.0000
     86 HC33       32.6925   29.9778   12.6666 H         1 LIG    0.0000
     87 HC34       31.2746   32.3184   12.7428 H         1 LIG    0.0000
     88 HC35       30.2865   31.1845   13.6970 H         1 LIG    0.0000
     89 HC36       33.2772   31.7399   14.1300 H         1 LIG    0.0000
     90 HC37       42.8087   22.3849   12.9982 H         1 LIG    0.0000
     91 HC38       44.5536   22.7011   12.9166 H         1 LIG    0.0000
     92 HC39       42.6888   24.4141   13.9474 H         1 LIG    0.0000
     93 HC40       43.2051   23.5781   15.4142 H         1 LIG    0.0000
     94 HC41       44.5191   25.6717   13.8680 H         1 LIG    0.0000
     95 HC42       44.7795   25.1740   15.5399 H         1 LIG    0.0000
     96 HC43       46.7602   24.2788   14.9910 H         1 LIG    0.0000
     97 HC44       45.9987   23.2465   13.7541 H         1 LIG    0.0000
     98 HC45       46.3247   26.1641   13.1935 H         1 LIG    0.0000
     99 HC46       47.7591   25.1215   13.1011 H         1 LIG    0.0000
    100 HC47       46.2781   23.5824   11.5968 H         1 LIG    0.0000
    101 HC48       45.2069   24.9898   11.4535 H         1 LIG    0.0000
    102 HC49       38.0971   25.1667   13.6302 H         1 LIG    0.0000
    103 HC50       39.3343   26.2041   14.3567 H         1 LIG    0.0000
    104 HC51       40.7625   24.4987   14.1088 H         1 LIG    0.0000
    105 HC52       39.8886   23.6698   15.4059 H         1 LIG    0.0000
    106 HC53       38.3372   22.8738   13.4539 H         1 LIG    0.0000
    107 HC54       39.7256   23.2865   12.4356 H         1 LIG    0.0000
    108 HC55       39.3189   20.8453   13.5501 H         1 LIG    0.0000
    109 HC56       40.9136   21.4717   13.1048 H         1 LIG    0.0000
    110 HC57       40.8106   22.4392   15.5644 H         1 LIG    0.0000
    111 HC58       39.6701   21.1034   15.7857 H         1 LIG    0.0000
    112 HC59       41.4770   19.7675   16.1843 H         1 LIG    0.0000
    113 HC60       41.8756   19.9100   14.4608 H         1 LIG    0.0000
    114 HC61       42.8306   22.2298   16.1049 H         1 LIG    0.0000
    115 HC62       43.5767   20.6781   16.5560 H         1 LIG    0.0000
    116 HC63       43.8245   20.3995   13.9323 H         1 LIG    0.0000
    117 HC64       45.0135   21.3285   14.8591 H         1 LIG    0.0000
    118 HC65       37.0438   18.1799   12.7994 H         1 LIG    0.0000
    119 HC66       36.8185   19.8906   13.2357 H         1 LIG    0.0000
    120 HC67       37.8337   19.4544   11.8402 H         1 LIG    0.0000
    121 HC68       33.5864   19.1102   11.8613 H         1 LIG    0.0000
    122 HC69       34.5838   18.1034   12.9380 H         1 LIG    0.0000
    123 HC70       34.4998   19.8633   13.1905 H         1 LIG    0.0000
    124 HC71       35.0260   17.9896    9.8889 H         1 LIG    0.0000
    125 HC72       35.8686   17.1228   11.1952 H         1 LIG    0.0000
    126 HC73       36.7977   18.0919   10.0265 H         1 LIG    0.0000
    127 HC74       30.0761   35.3225   15.8533 H         1 LIG    0.0000
    128 HC75       29.2944   33.7654   16.2168 H         1 LIG    0.0000
    129 HC76       31.0683   33.8675   16.1120 H         1 LIG    0.0000
    130 HC77       46.7730   24.8697    9.5633 H         1 LIG    0.0000
    131 HC78       48.1490   24.9021   10.6917 H         1 LIG    0.0000
    132 HC79       47.0812   26.3191   10.5494 H         1 LIG    0.0000
@<TRIPOS>BOND
     1    1    8 1
     2    1   10 1
     3    1   12 1
     4    1   14 1
     5    2    7 1
     6    2    9 1
     7    2   11 1
     8    2   13 1
     9    3    4 1
    10    3    7 1
    11    4    5 1
    12    4   25 1
    13    5   43 1
    14    6    8 1
    15    6    9 1
    16   15   25 1
    17   15   26 1
    18   15   27 2
    19   16   17 1
    20   16   34 2
    21   17   18 1
    22   18   19 2
    23   19   20 1
    24   20   21 1
    25   21   22 1
    26   22   23 1
    27   23   24 1
    28   26   28 1
    29   28   29 1
    30   29   30 1
    31   30   31 1
    32   31   32 1
    33   32   33 1
    34   33   34 1
    35   35   43 1
    36   35   44 1
    37   35   45 2
    38   36   37 1
    39   36   52 1
    40   37   38 1
    41   38   39 1
    42   39   40 1
    43   40   41 1
    44   41   42 1
    45   44   46 1
    46   46   47 1
    47   47   48 1
    48   48   49 1
    49   49   50 1
    50   50   51 1
    51   51   52 1
    52   53    3 1
    53   54    3 1
    54   55    4 1
    55   56    5 1
    56   57    5 1
    57   58    6 1
    58   59    6 1
    59   60    8 1
    60   61    8 1
    61   62   16 1
    62   63   17 1
    63   64   17 1
    64   65   18 1
    65   66   19 1
    66   67   20 1
    67   68   20 1
    68   69   21 1
    69   70   21 1
    70   71   22 1
    71   72   22 1
    72   73   23 1
    73   74   23 1
    74   75   26 1
    75   76   26 1
    76   77   28 1
    77   78   28 1
    78   79   29 1
    79   80   29 1
    80   81   30 1
    81   82   30 1
    82   83   31 1
    83   84   31 1
    84   85   32 1
    85   86   32 1
    86   87   33 1
    87   88   33 1
    88   89   34 1
    89   90   36 1
    90   91   36 1
    91   92   37 1
    92   93   37 1
    93   94   38 1
    94   95   38 1
    95   96   39 1
    96   97   39 1
    97   98   40 1
    98   99   40 1
    99  100   41 1
   100  101   41 1
   101  102   44 1
   102  103   44 1
   103  104   46 1
   104  105   46 1
   105  106   47 1
   106  107   47 1
   107  108   48 1
   108  109   48 1
   109  110   49 1
   110  111   49 1
   111  112   50 1
   112  113   50 1
   113  114   51 1
   114  115   51 1
   115  116   52 1
   116  117   52 1
   117  118   10 1
   118  119   10 1
   119  120   10 1
   120  121   12 1
   121  122   12 1
   122  123   12 1
   123  124   14 1
   124  125   14 1
   125  126   14 1
   126  127   24 1
   127  128   24 1
   128  129   24 1
   129  130   42 1
   130  131   42 1
   131  132   42 1
@<TRIPOS>SUBSTRUCTURE
     1 LIG     1 RESIDUE           4 A     LIG     0 ROOT
